<?xml version='1.0' encoding='UTF-8'?>
<routes xmlns:xsi="http://www.w3.org/2001/XMLSchema-instance" xsi:noNamespaceSchemaLocation="http://sumo.dlr.de/xsd/routes_file.xsd">
    <vType id="truck" accel="0.8" decel="3.5" length="7.5" maxSpeed="30" color="0.6,0.3,0" guiShape="truck" /><vType id="bus" accel="1.2" decel="4.0" length="12.0" maxSpeed="40" color="0,1,0" guiShape="bus" /><vType id="motorcycle" accel="3.5" decel="5.0" length="2.0" maxSpeed="50" color="1,0.5,0" guiShape="motorcycle" /><vType id="passenger" accel="2.6" decel="4.5" length="4.5" maxSpeed="50" color="0,0,1" guiShape="passenger" /><vehicle id="0" depart="0.00" type="passenger">
        <route edges="30410844#0 30410844#1 30410844#2 30410844#3 30410844#4 24636539#0 24636539#1 24636539#2 24636539#3 24636539#4 24636539#5 24636539#6 24636539#7 24636539#8 570397626#4 570397626#5 570397626#6 570397626#7 41500558#0 41500558#1 348400408#0 348400408#1 923663678 923663677#0 923663677#1 -171417413#3 -171417413#2" />
    </vehicle>
    <vehicle id="1" depart="1.00" type="passenger">
        <route edges="30410844#4 24636539#0 24636530#6 24636530#7 24636530#8 24636530#9 24636494#0 24636494#1 24636494#2 24636494#3 24636533#0" />
    </vehicle>
    <vehicle id="2" depart="2.00" type="passenger">
        <route edges="1013423667 448360636#0 448360636#1 448360636#2 448360636#3 448360636#4 448360636#5 448356974#0 448356974#1 448356974#2 448356974#3 448356974#4 448356974#5 448356974#6 448356974#7 448356974#8 448356974#9 448356974#10 448356974#11 448356974#12 448356974#13 448356974#14 448356974#15 860491009 1262722446 222254298#0 222254298#1 348400408#0 348400408#1 923663678 923663677#0 923663677#1 -171417413#3 -171417413#2 -171417413#1 -171417413#0 570397626#0 24636556" />
    </vehicle>
    <vehicle id="3" depart="3.00" type="passenger">
        <route edges="448360636#9 448360636#10 448360636#11 448360636#12 24445701#0 24445701#1 24445701#2 24445701#3 24445701#4 24445701#5 24445701#6 24445701#7 24445701#8 24445701#9 24445701#10 450854761 923663678 923663677#0 923663677#1 -171417413#3 -171417413#2 -171417413#1 -171417413#0 570397626#0 570397626#1 570397626#2 570397626#3 570397626#4 570397626#5 570397626#6 570397626#7 41500558#0" />
    </vehicle>
    <vehicle id="4" depart="4.00" type="passenger">
        <route edges="992372020#2 992372020#3 992372020#4 992372020#5 992372020#6 992372020#7 992372020#8 992372020#9 992372020#10 992372020#11 992372020#12 992372020#13 992372020#14 992372020#15 992372020#16 992372020#17 992372019#0 992372019#1 992372019#2 992372019#3 992372019#4 992372019#5 992372018#0 992372018#1 992372018#2 992372018#3 992372018#4 992372018#5 992372018#6 24636488#0 24636488#1 24636488#2 24636488#3 24636488#4 24636488#5 24636488#6 24636488#7 24636488#8 24636488#9 24636488#10 24636488#11 24636488#12 24636488#13 441299695#0 441299695#1 1262722449 222254294" />
    </vehicle>
    <vehicle id="5" depart="5.00" type="passenger">
        <route edges="-441353980#0 24445701#4 24445701#5 24445701#6 24445701#7 24445701#8 24445701#9 24445701#10 450854760#0 450854760#1 450854760#2 1086776026#0 1086776026#1 860491009 222254279#0 222254279#1 222254279#2 222254279#3 1300655441#0 24636501#0 24636501#1 24636501#2 24636501#3 24636501#4 24636501#5 24636501#6 441299701#1 24636489#0 24636489#1 24636489#2 -992372018#2 -992372018#1 -992372018#0" />
    </vehicle>
    <vehicle id="6" depart="6.00" type="motorcycle">
        <route edges="570397626#13 1300655441#0 1300655441#1 1300655441#2 1300655441#3 441299695#0 441299695#1 1262722449 222254296 1262722447 448224405 448177184#0 448177184#1 1262722445 1262722446 222254298#0 222254298#1 -41500558#1 -41500558#0 570397626#8 24636487#0 24636487#1 24636487#2 24636487#3 24636560#0 24636560#1 24636560#2 24636560#3 24636560#4 24636560#5 24636560#6 24636560#7" />
    </vehicle>
    <vehicle id="7" depart="7.00" type="passenger">
        <route edges="24636530#5 24636530#6 24636530#7 24636530#8 24636530#9 24636530#10 24636530#11 970147130#2 1007498673#0 1007498673#1 1350018304#0 1350018304#1 1350018304#2 1350018304#3 992372019#0 992372019#1 992372019#2 992372019#3 992372019#4 992372019#5 992372018#0 992372018#1 992372018#2 992372018#3 992372018#4 992372018#5 992372018#6 992372021#0 992372021#1 992372021#2" />
    </vehicle>
    <vehicle id="8" depart="8.00" type="motorcycle">
        <route edges="241795052#2 241795052#3 241795052#4 1012219213#1 1012219213#2 1012219213#3 1012219213#4 1012219213#5 1012219213#6 1012219213#7 -992372018#6 -992372018#5 -992372018#4 -992372018#3 -992372018#2 -992372018#1 -992372018#0 -992372019#5 -992372019#4 -992372019#3 -992372019#2 -992372019#1 -992372019#0 -992372020#17 -992372020#16 -992372020#15 24636494#3 24636533#0 24636533#1 24636533#2 24636533#3 24636533#4" />
    </vehicle>
    <vehicle id="9" depart="9.00" type="passenger">
        <route edges="450854760#2 1086776026#0 1086776026#1 860491009 1262722446 222254298#0 222254298#1 -41500558#1 -41500558#0 570397626#8 24636487#0 24636487#1 24636487#2 24636487#3 24636487#4 970147130#0 970147130#1 970147130#2 1007498673#0 1007498673#1 1350018304#0 1350018304#1 1350018304#2 1350018304#3 241795054#0 241795054#1 241795054#2 241795054#3 241795054#4 241795051#6 30410813#0" />
    </vehicle>
    <vehicle id="10" depart="10.00" type="passenger">
        <route edges="570397626#9 570397626#10 570397626#11 61858476#0 61858476#1 61858476#2 61858476#3 222254298#0 222254298#1 -41500558#1 -41500558#0 570397626#8 24636487#0 24636487#1 24636487#2 24636487#3 24636560#0 24636560#1 24636560#2 24636539#5 24636539#6" />
    </vehicle>
    <vehicle id="11" depart="11.00" type="bus">
        <route edges="441299693#1 441299693#2 -992372019#5 -992372019#4 -992372019#3 -992372019#2 -992372019#1 -992372019#0 -992372020#17 -992372020#16 -992372020#15 -992372020#14 -992372020#13 -30410831#2 -30410831#1" />
    </vehicle>
    <vehicle id="12" depart="12.00" type="passenger">
        <route edges="1013423668#3 1013423668#4 1013423667 448360636#0 448360636#1 448360636#2 448360636#3 448360636#4 448360636#5 448356974#0 448356974#1 448356974#2 448356974#3 448356974#4 448356974#5 448356974#6 448356974#7 448356974#8 448356974#9 448356974#10 448356974#11 448356974#12 448356974#13 448356974#14 448356974#15 860491009 1262722446 222254298#0 222254298#1 -41500558#1 -41500558#0 570397626#8 24636487#0 24636487#1 24636487#2 24636487#3 24636487#4 970147130#0 970147130#1 970147130#2 1007498673#0 1007498673#1 1350018304#0" />
    </vehicle>
    <vehicle id="13" depart="13.00" type="passenger">
        <route edges="-441299693#2 -441299693#1 -441299693#0 -30410775#2 -30410775#1 -30410775#0 -1007498673#1 -1007498673#0 30410844#0 30410844#1 30410844#2 30410844#3 30410844#4 24636539#0 24636539#1 24636539#2 24636539#3 24636539#4 24636539#5 24636539#6 24636539#7 24636539#8 570397626#4 570397626#5 570397626#6 570397626#7 41500558#0 41500558#1 348400408#0 348400408#1 923663678 923663677#0 923663677#1 171139669#0 923663679 860511458#0 860511458#1 450854760#0 450854760#1 1086776025#0 1086776025#1 1086776025#2 1086776025#3 1086776025#4 1086776025#5 1086776025#6 1086776025#7 1086776025#8 1086776025#9 1086776025#10 1086776025#11" />
    </vehicle>
    <vehicle id="14" depart="14.00" type="passenger">
        <route edges="30410833#0 30410833#1 241795051#4 241795051#5 241795051#6 241795051#7 241795051#8 241795052#0" />
    </vehicle>
    <vehicle id="15" depart="15.00" type="passenger">
        <route edges="1121898388#4 1121898388#5 1121898388#6 1121898388#7 1262722448 222254296 1262722447 448224405 448177184#0 448177184#1 1262722445 1262722446 222254298#0 222254298#1 -41500558#1 -41500558#0 570397626#8 24636487#0 24636487#1 24636487#2 24636487#3 24636487#4 970147130#0 970147130#1 970147130#2 1007498673#0 1007498673#1 1350018304#0 1350018304#1 1350018304#2 1350018304#3 992372019#0 992372019#1 992372019#2 992372019#3 992372019#4" />
    </vehicle>
    <vehicle id="16" depart="16.00" type="bus">
        <route edges="30410844#3 30410844#4 24636539#0 24636530#6 24636530#7 24636530#8 24636530#9 24636530#10 24636530#11 970147130#2 1007498673#0 1007498673#1 30410775#0 30410775#1 30410775#2" />
    </vehicle>
    <vehicle id="17" depart="17.00" type="passenger">
        <route edges="1012219213#0 1012219213#1 1012219213#2 1012219213#3 1012219213#4 1012219213#5 1012219213#6 1012219213#7 24636488#0 24636488#1 24636488#2 24636488#3 24636488#4 24636488#5 24636488#6 24636488#7 24636488#8 24636488#9 24636488#10 24636488#11 24636488#12 24636488#13 441299695#0 441299695#1 1262722449 222254296 1262722447 448224405 448177184#0 448177184#1 1262722445 1262722446 222254298#0 222254298#1 348400408#0 348400408#1 923663678 923663677#0 923663677#1 171139669#0 923663679 860511458#0 860511458#1 450854760#0 450854760#1 450854760#2 1086776026#0 1086776026#1 860491008#0 860491008#1 448177183#0 448177183#1" />
    </vehicle>
    <vehicle id="18" depart="18.00" type="passenger">
        <route edges="1006853063#0 1006853063#1 30410813#0 30410813#1 30410813#2 30410813#3 -992372019#3 -992372019#2 -992372019#1 -992372019#0 241795054#0 241795054#1 241795054#2 241795054#3" />
    </vehicle>
    <vehicle id="19" depart="19.00" type="passenger">
        <route edges="992372026#0 992372026#1 992372026#2 992372026#3 992372026#4 992372026#5 992372022#0 992372022#1 30410844#5 30410844#6 30410844#7 30410844#8 30410844#9 30410844#10" />
    </vehicle>
    <vehicle id="20" depart="20.00" type="passenger">
        <route edges="24636533#3 992372026#2 992372026#3 992372026#4 992372026#5 992372022#0 992372022#1 24636539#0 24636539#1 24636539#2 24636539#3 24636539#4 24636539#5 24636539#6 24636539#7 24636539#8 570397626#4 570397626#5 570397626#6 570397626#7 41500558#0 41500558#1 348400408#0 348400408#1" />
    </vehicle>
    <vehicle id="21" depart="21.00" type="passenger">
        <route edges="570397626#10 570397626#11 61858476#0 61858476#1 61858476#2 61858476#3 222254298#0 222254298#1 348400408#0 348400408#1 923663678 923663677#0 923663677#1 171139669#0 923663679 860511458#0 860511458#1 450854760#0 450854760#1 1086776025#0 1086776025#1 1086776025#2 1086776025#3 1086776025#4 1086776025#5 1086776025#6 1086776025#7 441353961#0 441353961#1 448356974#1 448356974#2 448356974#3 448356974#4 448356974#5 448356974#6" />
    </vehicle>
    <vehicle id="22" depart="22.00" type="bus">
        <route edges="1013423668#3 1013423668#4 1013423667 448360636#0 448360636#1 448360636#2 448360636#3 448360636#4 448360636#5 448356974#0 448356974#1 448356974#2 448356974#3 448356974#4 448356974#5 448356974#6 448356974#7 448356974#8 448356974#9 448356974#10 448356974#11 448356974#12 448356974#13 448356974#14 448356974#15 860491009 222254279#0 222254279#1 222254279#2 222254279#3 1300655441#0 24636501#0 24636501#1 24636501#2 24636501#3 24636501#4 24636501#5 24636501#6 24636501#7 970147131#2 970147131#3 -30410775#2 -30410775#1 -30410775#0" />
    </vehicle>
    <vehicle id="23" depart="23.00" type="passenger">
        <route edges="860489931#0 860489931#1 860489931#2 860489931#3 171139669#1 171139669#2 171139669#3" />
    </vehicle>
    <vehicle id="24" depart="24.00" type="passenger">
        <route edges="30410844#7 385779041#2 24636530#4 24636530#5 24636539#1 24636539#2 24636539#3 24636539#4 24636539#5 24636539#6 24636539#7 24636539#8 570397626#4 570397626#5 570397626#6 570397626#7 41500558#0 41500558#1 348400408#0 348400408#1 923663678 923663677#0 923663677#1 171139669#0 171139669#1 171139669#2 171139669#3 30411046#1 30411046#2 24445701#4" />
    </vehicle>
    <vehicle id="25" depart="25.00" type="bus">
        <route edges="970147131#3 441299701#0 441299701#1 24636489#0 24636489#1" />
    </vehicle>
    <vehicle id="26" depart="26.00" type="passenger">
        <route edges="1121898388#3 1121898388#4 1121898388#5 1121898388#6 1121898388#7 1262722448 222254296 1262722447 448224405 448177184#0 448177184#1 1262722445 1262722446 222254298#0 222254298#1 348400408#0 348400408#1 923663678 923663677#0 923663677#1 171139669#0 923663679 860511458#0 860511458#1 450854760#0 450854760#1 1086776025#0 1086776025#1 1086776025#2 1086776025#3 1086776025#4 1086776025#5 1086776025#6 1086776025#7 1086776025#8" />
    </vehicle>
    <vehicle id="27" depart="27.00" type="motorcycle">
        <route edges="24636539#6 24636539#7 24636539#8 570397626#4 570397626#5 570397626#6 570397626#7 41500558#0 41500558#1 348400408#0 348400408#1 923663678 923663677#0 923663677#1" />
    </vehicle>
    <vehicle id="28" depart="28.00" type="passenger">
        <route edges="992372026#4 992372026#5 992372022#0 992372022#1 24636539#0 24636539#1 24636539#2 24636539#3 24636539#4 24636539#5 24636539#6 24636539#7 24636539#8 570397626#4 570397626#5 570397626#6 570397626#7 570397626#8 570397626#9 570397626#10 570397626#11 570397626#12 570397626#13 1300655441#0 24636501#0 24636501#1 24636501#2 24636501#3" />
    </vehicle>
    <vehicle id="29" depart="29.00" type="passenger">
        <route edges="-441353961#1 -441353961#0 -30411038#2 24445701#2 24445701#3 24445701#4 24445701#5 24445701#6 24445701#7 24445701#8 24445701#9 24445701#10 450854761 923663678 923663677#0 923663677#1 -171417413#3 -171417413#2 -171417413#1 -171417413#0 570397626#0 570397626#1 570397626#2 570397626#3 570397626#4 570397626#5 570397626#6 570397626#7 570397626#8 24636487#0 24636487#1 24636487#2 24636487#3 24636487#4 970147130#0 970147130#1 970147130#2 1007498673#0 1007498673#1 1350018304#0 1350018304#1 1350018304#2 1350018304#3 -992372020#17 -992372020#16 -992372020#15 -992372020#14 -992372020#13 -30410831#2" />
    </vehicle>
    <vehicle id="30" depart="30.00" type="passenger">
        <route edges="-992372018#4 -992372018#3 -992372018#2 -992372018#1 -992372018#0 -992372019#5 -992372019#4 -992372019#3 -992372019#2 -992372019#1 -992372019#0 -992372020#17 -992372020#16 -992372020#15 -992372020#14 -992372020#13 -992372020#12 -992372020#11 -992372020#10 992372022#0 992372022#1 24636539#0 24636530#6 24636530#7 30410831#0" />
    </vehicle>
    <vehicle id="31" depart="31.00" type="passenger">
        <route edges="-30411055#1 24445701#1 24445701#2 24445701#3 24445701#4 24445701#5 24445701#6 24445701#7 24445701#8 24445701#9 24445701#10 450854761 923663678 923663677#0 923663677#1 -171417413#3 -171417413#2 -171417413#1 -171417413#0 570397626#0 570397626#1 570397626#2 570397626#3 570397626#4 570397626#5 570397626#6 570397626#7 570397626#8 24636487#0 24636487#1 24636487#2 24636487#3 24636487#4 970147130#0 970147130#1 970147130#2 1007498673#0 1007498673#1 1350018304#0 1350018304#1 1350018304#2 1350018304#3 241795054#0 241795054#1 241795054#2 241795054#3 241795054#4" />
    </vehicle>
    <vehicle id="32" depart="32.00" type="passenger">
        <route edges="992372026#3 992372026#4 992372026#5 992372022#0 992372022#1 30410844#5 30410844#6 30410844#7 385779041#2 24636530#4 24636530#5" />
    </vehicle>
    <vehicle id="33" depart="33.00" type="truck">
        <route edges="992372020#9 992372022#0 992372022#1 24636539#0 24636539#1 24636539#2 24636539#3 24636539#4 24636539#5 24636539#6 24636539#7 24636539#8 570397626#4 570397626#5 570397626#6 570397626#7" />
    </vehicle>
    <vehicle id="34" depart="34.00" type="passenger">
        <route edges="30411055#0 24445701#1 24445701#2 24445701#3 24445701#4 24445701#5 24445701#6 24445701#7 24445701#8 24445701#9 24445701#10 450854761 923663678 923663677#0 923663677#1 -171417413#3 -171417413#2 -171417413#1 -171417413#0 570397626#0 570397626#1 570397626#2 570397626#3 570397626#4 570397626#5 570397626#6 570397626#7 570397626#8 24636487#0 24636487#1 24636487#2 24636487#3 24636487#4 970147130#0 970147130#1 970147130#2 30410844#0 30410844#1 30410844#2 -30410831#0 24636530#8 24636530#9" />
    </vehicle>
    <vehicle id="35" depart="35.00" type="passenger">
        <route edges="1121898388#4 1121898388#5 1121898388#6 1121898388#7 1262722448 222254296 1262722447 448224405 448177184#0 448177184#1 1262722445 1262722446 222254298#0 222254298#1 -41500558#1 -41500558#0 570397626#8 24636487#0 24636487#1 24636487#2 24636487#3 24636487#4 970147130#0 970147130#1 970147130#2 30410844#0 30410844#1 30410844#2 30410844#3 30410844#4 30410844#5 30410844#6 30410844#7 30410844#8 30410844#9 30410844#10 30410844#11" />
    </vehicle>
    <vehicle id="36" depart="36.00" type="passenger">
        <route edges="-992372018#5 -992372018#4 -992372018#3 24636489#3 24636489#4 24636489#5 24636489#6 241795052#3 241795052#4 1012219213#1 1012219213#2 1012219213#3 1012219213#4 1012219213#5 1012219213#6 1012219213#7 24636488#0 24636488#1" />
    </vehicle>
    <vehicle id="37" depart="37.00" type="passenger">
        <route edges="24636488#5 24636488#6 24636488#7 24636488#8 24636488#9 24636488#10 24636488#11 24636488#12 24636488#13 441299695#0 441299695#1 1262722449 222254296 1262722447 448224405 448177184#0 448177184#1 1262722445 1262722446 222254298#0 222254298#1 -41500558#1 -41500558#0 570397626#8 24636487#0 24636487#1 24636487#2 24636487#3 24636487#4 970147130#0 970147130#1 970147130#2 30410844#0 30410844#1 24636494#1 24636494#2 992372020#15 992372020#16 992372020#17" />
    </vehicle>
    <vehicle id="38" depart="38.00" type="passenger">
        <route edges="24636497#5 24636539#3 24636539#4 24636560#3 24636560#4 24636560#5 24636536#1 24636536#2 24636536#3 1012574790#0 1012574790#1" />
    </vehicle>
    <vehicle id="39" depart="39.00" type="passenger">
        <route edges="970147131#2 970147131#3 -30410775#2 -30410775#1 -30410775#0 -1007498673#1 -1007498673#0 30410844#0 30410844#1 30410844#2 30410844#3 30410844#4 24636539#0 24636539#1 24636539#2 24636539#3 24636539#4 24636539#5 24636539#6 24636539#7 24636539#8 570397626#4 570397626#5 570397626#6 570397626#7 570397626#8 570397626#9 570397626#10 570397626#11 61858476#0 61858476#1 61858476#2 61858476#3" />
    </vehicle>
    <vehicle id="40" depart="40.00" type="passenger">
        <route edges="1322965176#0 1322965176#1 24636533#6 24636532#1 24636532#2 992372020#6 992372020#7 992372020#8 992372020#9 992372022#0 992372022#1 24636539#0 24636530#6 24636530#7 24636530#8 24636530#9 24636530#10 24636530#11 970147130#2 30410844#0 30410844#1" />
    </vehicle>
    <vehicle id="41" depart="41.00" type="truck">
        <route edges="448356974#14 448356974#15 860491009 1262722446 222254298#0 222254298#1 -41500558#1 -41500558#0 570397626#8 24636487#0 24636487#1 24636487#2 24636487#3 24636487#4 970147130#0 970147130#1 970147130#2 1007498673#0 1007498673#1 1350018304#0 1350018304#1 1350018304#2 1350018304#3 -992372020#17 -992372020#16 -992372020#15 -992372020#14 -992372020#13 -992372020#12 -992372020#11 -992372020#10 -992372020#9 -992372020#8 -992372020#7 -992372020#6 -992372020#5 -992372020#4 992372024#0 992372024#1 241795051#1 24636532#0" />
    </vehicle>
    <vehicle id="42" depart="42.00" type="passenger">
        <route edges="448356974#9 448356974#10 448356974#11 448356974#12 448356974#13 448356974#14 448356974#15 860491009 1262722446 222254298#0 222254298#1 -41500558#1 -41500558#0 570397626#8 24636487#0 24636487#1 24636487#2 24636487#3 24636487#4 970147130#0 970147130#1 970147130#2 30410844#0 30410844#1 30410844#2 30410844#3 30410844#4 30410844#5 30410844#6 30410844#7 385779041#2 24636530#4 24636530#5" />
    </vehicle>
    <vehicle id="43" depart="43.00" type="passenger">
        <route edges="860489931#1 860489931#2 860489931#3 923663679 860511458#0 860511458#1 450854760#0 450854760#1" />
    </vehicle>
    <vehicle id="44" depart="44.00" type="passenger">
        <route edges="1350018304#3 -992372020#17 -992372020#16 -992372020#15 -992372020#14 -992372020#13 -992372020#12 -992372020#11 -992372020#10 992372022#0 992372022#1 24636539#0 24636539#1 24636539#2 24636539#3 24636539#4 24636539#5 24636539#6 24636539#7 24636539#8 570397626#4 570397626#5 570397626#6 570397626#7 41500558#0 41500558#1 348400408#0 348400408#1 923663678 923663677#0 923663677#1 171139669#0 923663679 860511458#0 860511458#1 450854760#0 450854760#1 1086776025#0 1086776025#1 1086776025#2 1086776025#3 1086776025#4 1086776025#5 1086776025#6 1086776025#7 1086776025#8 -30411055#1 -30411055#0" />
    </vehicle>
    <vehicle id="45" depart="45.00" type="passenger">
        <route edges="860489931#1 860489931#2 860489931#3 923663679 860511458#0 860511458#1 450854760#0 450854760#1 450854760#2 1086776026#0 1086776026#1 860491009 1262722446 222254298#0 222254298#1 -41500558#1 -41500558#0 570397626#8 24636487#0 24636487#1 24636487#2 24636487#3 24636487#4 970147130#0 970147130#1 970147130#2 30410844#0 30410844#1 30410844#2 30410831#1 30410831#2 992372020#13" />
    </vehicle>
    <vehicle id="46" depart="46.00" type="passenger">
        <route edges="-385779041#1 -385779041#0 992372020#7 992372020#8 992372020#9 992372022#0 992372022#1 24636539#0 24636539#1 24636539#2 24636539#3 24636539#4 24636539#5 24636539#6 24636539#7 24636539#8 570397626#4 570397626#5 570397626#6 570397626#7 41500558#0 41500558#1 348400408#0 348400408#1 923663678 923663677#0 923663677#1 171139669#0 923663679 860511458#0 860511458#1 450854760#0 450854760#1 1086776025#0 1086776025#1 1086776025#2 1086776025#3 1086776025#4 1086776025#5 1086776025#6 1086776025#7 441353961#0 441353961#1 448356974#1 448356974#2 448356974#3 448356974#4 448356974#5 448356974#6 448356974#7 448356974#8 448356974#9 448356974#10 448356974#11 448356974#12" />
    </vehicle>
    <vehicle id="47" depart="47.00" type="motorcycle">
        <route edges="448356974#2 448356974#3 448356974#4 448356974#5 448356974#6 448356974#7 448356974#8 448356974#9 448356974#10 448356974#11 448356974#12 448356974#13 448356974#14 448356974#15 860491009 1262722446 222254298#0 222254298#1 -41500558#1 -41500558#0 570397626#8 24636487#0 24636487#1 24636487#2 24636487#3 24636487#4 970147130#0 970147130#1 970147130#2 1007498673#0 1007498673#1 1350018304#0 1350018304#1 1350018304#2 1350018304#3 -992372020#17 -992372020#16 -992372020#15 -992372020#14 -992372020#13" />
    </vehicle>
    <vehicle id="48" depart="48.00" type="passenger">
        <route edges="24636491#0 24636491#1 24636491#2 241795052#0 241795052#1 241795052#2 241795052#3 241795052#4 1012219213#1 1012219213#2 1012219213#3 1012219213#4 1012219213#5 1012219213#6 1012219213#7 -992372018#6 -992372018#5 -992372018#4 -992372018#3 -992372018#2 -992372018#1 -992372018#0 -992372019#5 -992372019#4 -992372019#3 -992372019#2 -992372019#1 -992372019#0 -992372020#17 -992372020#16 -992372020#15 24636494#3 24636533#0 24636533#1 24636533#2 24636533#3" />
    </vehicle>
    <vehicle id="49" depart="49.00" type="passenger">
        <route edges="24636530#6 24636530#7 30410831#0 30410844#3 30410844#4 24636539#0 24636539#1 24636539#2 24636539#3 24636539#4 24636539#5 24636539#6 24636539#7 24636539#8 570397626#4 570397626#5 570397626#6 570397626#7 41500558#0 41500558#1 348400408#0 348400408#1 923663678 923663677#0 923663677#1 171139669#0 923663679 860511458#0 860511458#1 450854760#0 450854760#1 450854760#2 1086776026#0 1086776026#1 860491008#0 860491008#1 448177183#0 448177183#1 448177183#2" />
    </vehicle>
    <vehicle id="50" depart="50.00" type="motorcycle">
        <route edges="992372026#3 992372026#4 992372026#5 992372022#0 992372022#1 30410844#5" />
    </vehicle>
    <vehicle id="51" depart="51.00" type="passenger">
        <route edges="24636488#0 24636488#1 24636488#2 24636488#3 24636488#4 24636488#5 24636488#6 24636488#7 24636488#8 24636488#9 24636488#10 24636488#11 24636488#12 24636488#13 441299695#0 441299695#1 1262722449 222254296 1262722447 448224405 448177184#0 448177184#1 1262722445 222254279#0 222254279#1 222254279#2 222254279#3 1300655441#0 24636501#0 24636501#1 24636501#2 24636501#3 24636501#4 24636501#5 24636501#6 24636501#7" />
    </vehicle>
    <vehicle id="52" depart="52.00" type="motorcycle">
        <route edges="222254279#0 222254279#1 222254279#2 222254279#3 1300655441#0 24636501#0 24636501#1 24636501#2 24636501#3 24636501#4 24636501#5 24636501#6 24636501#7 970147131#2 970147131#3 -30410775#2 -30410775#1 -30410775#0 -1007498673#1 -1007498673#0 30410844#0 30410844#1 30410844#2 30410844#3 30410844#4 24636539#0 24636539#1 24636541#0 24636541#1 24636541#2 24636541#3" />
    </vehicle>
    <vehicle id="53" depart="53.00" type="passenger">
        <route edges="-385779041#2 -385779041#1 -385779041#0 992372020#7 992372020#8 992372020#9 992372022#0 992372022#1 24636539#0 24636530#6 24636530#7 30410831#0 30410831#1 30410831#2" />
    </vehicle>
    <vehicle id="54" depart="54.00" type="passenger">
        <route edges="1013423668#3 1013423668#4 1013423667 448360636#0 448360636#1 448360636#2 448360636#3 448360636#4 448360636#5 448356974#0 448356974#1 448356974#2 448356974#3 448356974#4 448356974#5 448356974#6 448356974#7 448356974#8 448356974#9 448356974#10 448356974#11 448356974#12 448356974#13 448356974#14 448356974#15 860491009 1262722446 222254298#0 222254298#1 -41500558#1 -41500558#0 570397626#8 24636487#0 24636487#1 24636487#2 24636487#3 24636487#4 970147130#0 970147130#1" />
    </vehicle>
    <vehicle id="55" depart="55.00" type="passenger">
        <route edges="570397626#8 24636487#0 24636487#1 24636487#2 24636487#3 24636487#4 970147130#0 970147130#1 970147130#2 1007498673#0 1007498673#1 1350018304#0 1350018304#1 1350018304#2 1350018304#3 992372019#0 992372019#1 992372019#2 992372019#3 992372019#4 992372019#5 -441299693#2 -441299693#1 -441299693#0" />
    </vehicle>
    <vehicle id="56" depart="56.00" type="passenger">
        <route edges="1086776025#11 1086776025#12 448360636#10 448360636#11 448360636#12 24445701#0 24445701#1 24445701#2 24445701#3 24445701#4 24445701#5 24445701#6 24445701#7 24445701#8 24445701#9 30411048#1" />
    </vehicle>
    <vehicle id="57" depart="57.00" type="passenger">
        <route edges="992372019#4 992372019#5 -441299693#2 -441299693#1 -441299693#0 -30410775#2 -30410775#1 -30410775#0 -1007498673#1 -1007498673#0 30410844#0 30410844#1 30410844#2 30410844#3 30410844#4 24636539#0 24636539#1 24636539#2 24636539#3" />
    </vehicle>
    <vehicle id="58" depart="58.00" type="passenger">
        <route edges="-448176391 448224405 448177184#0 448177184#1 1262722445 1262722446 222254298#0 222254298#1 -41500558#1 -41500558#0 570397626#8 24636487#0 24636487#1 24636487#2 24636487#3 24636487#4" />
    </vehicle>
    <vehicle id="59" depart="59.00" type="bus">
        <route edges="24488397#3 24488397#4 171139669#3 30411046#1 30411046#2 24445701#4 24445701#5 24445701#6 24445701#7 24445701#8 24445701#9 24445701#10 450854760#0 450854760#1 450854760#2 1086776026#0 1086776026#1 860491009 222254279#0 222254279#1 222254279#2 222254279#3 1300655441#0 24636501#0 24636501#1 24636501#2 24636501#3 24636501#4 24636501#5 24636501#6 441299701#1 24636489#0 24636489#1 24636489#2 24636489#3 24636489#4 24636489#5" />
    </vehicle>
    <vehicle id="60" depart="60.00" type="passenger">
        <route edges="992372023#2 992372020#4 992372020#5 992372020#6 992372020#7 992372020#8 992372020#9 992372020#10 992372020#11 992372020#12 992372020#13 992372020#14 992372020#15 992372020#16 992372020#17 992372019#0 992372019#1 992372019#2 992372019#3 992372019#4 992372019#5 -441299693#2 -441299693#1 -441299693#0 441299701#0 441299701#1 24636489#0 24636489#1 24636489#2 -992372018#2 -992372018#1" />
    </vehicle>
    <vehicle id="61" depart="61.00" type="passenger">
        <route edges="24445701#4 24445701#5 24445701#6 24445701#7 24445701#8 24445701#9 24445701#10 450854760#0 450854760#1 450854760#2 1086776026#0 1086776026#1 860491009 222254279#0 222254279#1 222254279#2 222254279#3 1300655441#0 1300655441#1 1300655441#2 1300655441#3 441299695#0 441299695#1 1262722449 222254296" />
    </vehicle>
    <vehicle id="62" depart="62.00" type="passenger">
        <route edges="570397626#9 570397626#10 570397626#11 61858476#0 61858476#1 61858476#2 61858476#3 222254298#0 222254298#1 348400408#0 348400408#1 923663678 923663677#0 923663677#1 171139669#0 923663679 860511458#0 860511458#1 450854760#0 450854760#1 1086776025#0 1086776025#1 1086776025#2 1086776025#3 1086776025#4 1086776025#5 1086776025#6 1086776025#7 1086776025#8 1086776025#9" />
    </vehicle>
    <vehicle id="63" depart="63.00" type="passenger">
        <route edges="1086776025#7 441353961#0 441353961#1 448356974#1 448356974#2 448356974#3 448356974#4 448356974#5 448356974#6 448356974#7 448356974#8 448356974#9 448356974#10 448356974#11 448356974#12 448356974#13 448356974#14 448356974#15 860491009 222254279#0 222254279#1 222254279#2 222254279#3 1300655441#0 24636501#0 24636501#1 24636501#2 24636501#3 24636501#4 24636501#5 24636501#6 441299701#1 24636489#0 24636489#1 24636489#2 992372018#3 992372018#4" />
    </vehicle>
    <vehicle id="64" depart="64.00" type="passenger">
        <route edges="24636488#11 24636488#12 24636488#13 441299695#0 441299695#1 1262722449 222254296 1262722447 448224405 448177184#0 448177184#1 1262722445 1262722446 222254298#0 222254298#1 -41500558#1 -41500558#0 570397626#8" />
    </vehicle>
    <vehicle id="65" depart="65.00" type="motorcycle">
        <route edges="24636532#2 -992372020#5 -992372020#4 992372024#0 992372024#1 241795051#1 241795051#2 241795051#3 -30410833#1" />
    </vehicle>
    <vehicle id="66" depart="66.00" type="passenger">
        <route edges="992372020#8 992372020#9 992372020#10 992372020#11 992372020#12 992372020#13 992372020#14 992372020#15 992372020#16 992372020#17 992372019#0 992372019#1 992372019#2 992372019#3 992372019#4 992372019#5 992372018#0 992372018#1 992372018#2 992372018#3 992372018#4 992372018#5 992372018#6" />
    </vehicle>
    <vehicle id="67" depart="67.00" type="passenger">