<?xml version="1.0" encoding="UTF-8"?>

<!-- generated on 2026-06-01T01:23:19.841406-04:00 by Eclipse SUMO netedit 1.27.0
<neteditConfiguration xmlns:xsi="http://www.w3.org/2001/XMLSchema-instance" xsi:noNamespaceSchemaLocation="http://sumo.dlr.de/xsd/neteditConfiguration.xsd">

    <input>
        <sumo-net-file value="R:\Downloads\Sanmi.net.xml"/>
        <osm-files value="R:\Downloads\map.osm"/>
    </input>

    <output>
        <output-file value="R:\Downloads\Sanmi.net.xml"/>
    </output>

    <projection>
        <proj.utm value="true"/>
    </projection>

    <processing>
        <geometry.remove value="true"/>
        <offset.disable-normalization value="true"/>
    </processing>

    <tls_building>
        <tls.discard-simple value="true"/>
        <tls.guess-signals value="true"/>
    </tls_building>

    <ramp_guessing>
        <ramps.guess value="true"/>
    </ramp_guessing>

    <junctions>
        <no-turnarounds value="true"/>
        <junctions.join value="true"/>
    </junctions>

</neteditConfiguration>
-->

<net version="1.20" junctionCornerDetail="5" limitTurnSpeed="5.50" xmlns:xsi="http://www.w3.org/2001/XMLSchema-instance" xsi:noNamespaceSchemaLocation="http://sumo.dlr.de/xsd/net_file.xsd">

    <location netOffset="0.00,0.00" convBoundary="344386.07,-3717169.32,348474.81,-3704803.42" origBoundary="-70.676839,-33.582893,-70.631045,-33.471656" projParameter="+proj=utm +zone=19 +ellps=WGS84 +datum=WGS84 +units=m +no_defs"/>

    <type id="highway.busway" priority="1" numLanes="1" speed="27.78" allow="bus" oneway="1"/>
    <type id="highway.cycleway" priority="1" numLanes="1" speed="5.56" allow="bicycle" oneway="0" width="2.00"/>
    <type id="highway.footway" priority="1" numLanes="1" speed="2.78" allow="pedestrian" oneway="1" width="2.00"/>
    <type id="highway.living_street" priority="2" numLanes="1" speed="2.78" disallow="tram rail_urban rail rail_electric rail_fast ship container cable_car subway aircraft wheelchair scooter drone" oneway="0"/>
    <type id="highway.primary" priority="12" numLanes="2" speed="27.78" disallow="tram rail_urban rail rail_electric rail_fast ship container cable_car subway aircraft wheelchair scooter drone" oneway="0"/>
    <type id="highway.primary_link" priority="7" numLanes="1" speed="22.22" disallow="tram rail_urban rail rail_electric rail_fast ship container cable_car subway aircraft wheelchair scooter drone" oneway="0"/>
    <type id="highway.residential" priority="3" numLanes="1" speed="13.89" disallow="tram rail_urban rail rail_electric rail_fast ship container cable_car subway aircraft wheelchair scooter drone" oneway="0"/>
    <type id="highway.service" priority="1" numLanes="1" speed="5.56" allow="pedestrian delivery bicycle" oneway="0"/>
    <type id="highway.steps" priority="1" numLanes="1" speed="1.39" allow="pedestrian" oneway="1" width="2.00"/>
    <type id="highway.tertiary" priority="10" numLanes="1" speed="22.22" disallow="tram rail_urban rail rail_electric rail_fast ship container cable_car subway aircraft wheelchair scooter drone" oneway="0"/>
    <type id="railway.subway" priority="18" numLanes="1" speed="27.78" allow="subway" oneway="1"/>

    <edge id=":10261131513_0" function="internal">
        <lane id=":10261131513_0_0" index="0" allow="pedestrian delivery bicycle" speed="5.56" length="0.79" shape="346776.19,-3706136.26 346775.97,-3706136.34 346775.82,-3706136.40 346775.69,-3706136.50 346775.53,-3706136.66"/>
    </edge>
    <edge id=":10261131517_0" function="internal">
        <lane id=":10261131517_0_0" index="0" allow="pedestrian delivery bicycle" speed="5.56" length="1.75" shape="346773.77,-3706138.40 346773.44,-3706138.80 346773.24,-3706139.12 346773.01,-3706139.38 346772.58,-3706139.64"/>
    </edge>
    <edge id=":10261131521_0" function="internal">
        <lane id=":10261131521_0_0" index="0" allow="pedestrian delivery bicycle" speed="5.56" length="5.15" shape="346861.85,-3706168.55 346856.81,-3706167.47"/>
    </edge>
    <edge id=":10261131521_1" function="internal">
        <lane id=":10261131521_1_0" index="0" allow="pedestrian delivery bicycle" speed="5.56" length="5.18" shape="346856.13,-3706170.60 346861.19,-3706171.68"/>
    </edge>
    <edge id=":10261131522_0" function="internal">
        <lane id=":10261131522_0_0" index="0" disallow="tram rail_urban rail rail_electric rail_fast ship container cable_car subway aircraft wheelchair scooter drone" speed="13.89" length="1.68" shape="346746.75,-3706194.18 346747.09,-3706192.55"/>
        <lane id=":10261131522_0_1" index="1" disallow="tram rail_urban rail rail_electric rail_fast ship container cable_car subway aircraft wheelchair scooter drone" speed="13.89" length="1.68" shape="346743.61,-3706193.52 346743.95,-3706191.88"/>
        <lane id=":10261131522_0_2" index="2" disallow="tram rail_urban rail rail_electric rail_fast ship container cable_car subway aircraft wheelchair scooter drone" speed="13.89" length="1.68" shape="346740.48,-3706192.87 346740.82,-3706191.22"/>
    </edge>
    <edge id=":10261131523_0" function="internal">
        <lane id=":10261131523_0_0" index="0" allow="bus bicycle" speed="13.89" length="5.00" shape="346740.95,-3706221.87 346741.97,-3706216.98"/>
        <lane id=":10261131523_0_1" index="1" disallow="tram rail_urban rail rail_electric rail_fast ship container cable_car subway aircraft wheelchair scooter drone" speed="13.89" length="5.00" shape="346737.82,-3706221.22 346738.84,-3706216.32"/>
        <lane id=":10261131523_0_2" index="2" disallow="tram rail_urban rail rail_electric rail_fast ship container cable_car subway aircraft wheelchair scooter drone" speed="13.89" length="5.00" shape="346734.69,-3706220.56 346735.71,-3706215.67"/>
    </edge>
    <edge id=":10692508354_0" function="internal">
        <lane id=":10692508354_0_0" index="0" allow="pedestrian delivery bicycle" speed="5.56" length="0.30" shape="347171.65,-3706828.30 347171.59,-3706828.59"/>
    </edge>
    <edge id=":10692508354_1" function="internal">
        <lane id=":10692508354_1_0" index="0" allow="pedestrian delivery bicycle" speed="5.56" length="0.30" shape="347174.71,-3706829.28 347174.77,-3706828.99"/>
    </edge>
    <edge id=":10942892984_0" function="internal">
        <lane id=":10942892984_0_0" index="0" disallow="tram rail_urban rail rail_electric rail_fast ship container cable_car subway aircraft wheelchair scooter drone" speed="13.89" length="9.40" shape="346968.99,-3706541.65 346967.02,-3706550.85"/>
    </edge>
    <edge id=":10942892984_1" function="internal">
        <lane id=":10942892984_1_0" index="0" allow="pedestrian delivery bicycle" speed="6.11" length="7.78" shape="346968.99,-3706541.65 346968.60,-3706544.38 346968.76,-3706546.43 346969.47,-3706547.80 346970.72,-3706548.49"/>
    </edge>
    <edge id=":10942892984_2" function="internal">
        <lane id=":10942892984_2_0" index="0" allow="pedestrian delivery bicycle" speed="6.07" length="7.79" shape="346971.43,-3706545.37 346970.00,-3706545.45 346968.78,-3706546.39 346967.79,-3706548.19 346967.02,-3706550.85"/>
    </edge>
    <edge id=":10943224128_0" function="internal">
        <lane id=":10943224128_0_0" index="0" allow="bus bicycle" speed="13.89" length="0.29" shape="346699.79,-3706414.51 346699.86,-3706414.16"/>
        <lane id=":10943224128_0_1" index="1" disallow="tram rail_urban rail rail_electric rail_fast ship container cable_car subway aircraft wheelchair scooter drone" speed="13.89" length="0.29" shape="346696.66,-3706413.84 346696.72,-3706413.53"/>
        <lane id=":10943224128_0_2" index="2" disallow="tram rail_urban rail rail_electric rail_fast ship container cable_car subway aircraft wheelchair scooter drone" speed="13.89" length="0.29" shape="346693.53,-3706413.17 346693.58,-3706412.90"/>
        <lane id=":10943224128_0_3" index="3" disallow="tram rail_urban rail rail_electric rail_fast ship container cable_car subway aircraft wheelchair scooter drone" speed="13.89" length="0.29" shape="346690.40,-3706412.50 346690.45,-3706412.27"/>
    </edge>
    <edge id=":11067639876_0" function="internal">
        <lane id=":11067639876_0_0" index="0" allow="pedestrian delivery bicycle" speed="5.56" length="2.61" shape="347504.89,-3706683.14 347504.14,-3706683.31 347503.64,-3706683.50 347503.19,-3706683.80 347502.62,-3706684.31"/>
    </edge>
    <edge id=":11067639876_1" function="internal">
        <lane id=":11067639876_1_0" index="0" allow="pedestrian delivery bicycle" speed="5.56" length="0.87" shape="347504.78,-3706686.67 347504.97,-3706686.50 347505.12,-3706686.40 347505.29,-3706686.34 347505.54,-3706686.28"/>
    </edge>
    <edge id=":11067639879_0" function="internal">
        <lane id=":11067639879_0_0" index="0" allow="pedestrian delivery bicycle" speed="5.56" length="3.35" shape="347537.20,-3706694.04 347537.23,-3706693.06 347537.14,-3706692.37 347536.84,-3706691.75 347536.28,-3706690.94"/>
    </edge>
    <edge id=":11067639879_1" function="internal">
        <lane id=":11067639879_1_0" index="0" allow="pedestrian delivery bicycle" speed="4.34" length="1.12" shape="347533.70,-3706692.83 347533.89,-3706693.10 347533.99,-3706693.31 347534.02,-3706693.54 347534.01,-3706693.87"/>
    </edge>
    <edge id=":11067639880_0" function="internal">
        <lane id=":11067639880_0_0" index="0" allow="pedestrian delivery bicycle" speed="6.07" length="7.78" shape="347519.64,-3706758.21 347519.72,-3706759.63 347520.66,-3706760.84 347522.46,-3706761.84 347525.11,-3706762.62"/>
    </edge>
    <edge id=":11067639880_1" function="internal">
        <lane id=":11067639880_1_0" index="0" disallow="tram rail_urban rail rail_electric rail_fast ship container cable_car subway aircraft wheelchair scooter drone" speed="13.89" length="9.39" shape="347515.25,-3706763.74 347524.42,-3706765.75"/>
        <lane id=":11067639880_1_1" index="1" disallow="tram rail_urban rail rail_electric rail_fast ship container cable_car subway aircraft wheelchair scooter drone" speed="13.89" length="9.39" shape="347515.93,-3706760.62 347525.11,-3706762.62"/>
    </edge>
    <edge id=":11067639880_3" function="internal">
        <lane id=":11067639880_3_0" index="0" allow="pedestrian delivery bicycle" speed="6.11" length="7.77" shape="347515.93,-3706760.62 347518.66,-3706761.01 347520.71,-3706760.86 347522.08,-3706760.16 347522.76,-3706758.92"/>
    </edge>
    <edge id=":11072645606_0" function="internal">
        <lane id=":11072645606_0_0" index="0" allow="pedestrian bicycle" speed="5.05" length="4.87" width="2.00" shape="347554.45,-3706386.97 347552.90,-3706386.83 347551.75,-3706386.40 347551.00,-3706385.69 347550.65,-3706384.69"/>
    </edge>
    <edge id=":11072645606_1" function="internal">
        <lane id=":11072645606_1_0" index="0" allow="pedestrian bicycle" speed="4.42" length="3.96" width="2.00" shape="347551.43,-3706390.70 347551.54,-3706389.94 347552.07,-3706389.40 347553.05,-3706389.08 347554.45,-3706388.97"/>
    </edge>
    <edge id=":11072645606_2" function="internal">
        <lane id=":11072645606_2_0" index="0" disallow="tram rail_urban rail rail_electric rail_fast ship container cable_car subway aircraft wheelchair scooter drone" speed="13.89" length="6.05" shape="347551.43,-3706390.70 347550.65,-3706384.69"/>
        <lane id=":11072645606_2_1" index="1" disallow="tram rail_urban rail rail_electric rail_fast ship container cable_car subway aircraft wheelchair scooter drone" speed="13.89" length="6.05" shape="347548.25,-3706391.10 347547.48,-3706385.11"/>
    </edge>
    <edge id=":11072645680_0" function="internal">
        <lane id=":11072645680_0_0" index="0" disallow="tram rail_urban rail rail_electric rail_fast ship container cable_car subway aircraft wheelchair scooter drone" speed="13.89" length="5.13" shape="347553.81,-3706409.76 347553.19,-3706404.64"/>
        <lane id=":11072645680_0_1" index="1" disallow="tram rail_urban rail rail_electric rail_fast ship container cable_car subway aircraft wheelchair scooter drone" speed="13.89" length="5.13" shape="347550.63,-3706410.12 347550.02,-3706405.04"/>
    </edge>
    <edge id=":11072645681_0" function="internal">
        <lane id=":11072645681_0_0" index="0" allow="bus bicycle" speed="13.89" length="5.30" shape="347543.55,-3706410.83 347542.86,-3706405.58"/>
        <lane id=":11072645681_0_1" index="1" allow="bus" speed="13.89" length="5.30" shape="347540.38,-3706411.25 347539.69,-3706405.99"/>
    </edge>
    <edge id=":11072645681_2" function="internal">
        <lane id=":11072645681_2_0" index="0" allow="bus bicycle" speed="13.89" length="5.31" shape="347533.34,-3706406.81 347534.03,-3706412.08"/>
        <lane id=":11072645681_2_1" index="1" allow="bus" speed="13.89" length="5.31" shape="347536.51,-3706406.40 347537.20,-3706411.67"/>
    </edge>
    <edge id=":11072645682_0" function="internal">
        <lane id=":11072645682_0_0" index="0" disallow="tram rail_urban rail rail_electric rail_fast ship container cable_car subway aircraft wheelchair scooter drone" speed="13.89" length="5.00" shape="347525.13,-3706407.85 347525.78,-3706412.81"/>
        <lane id=":11072645682_0_1" index="1" disallow="tram rail_urban rail rail_electric rail_fast ship container cable_car subway aircraft wheelchair scooter drone" speed="13.89" length="5.00" shape="347528.30,-3706407.43 347528.96,-3706412.39"/>
    </edge>
    <edge id=":11072645683_0" function="internal">
        <lane id=":11072645683_0_0" index="0" disallow="tram rail_urban rail rail_electric rail_fast ship container cable_car subway aircraft wheelchair scooter drone" speed="13.89" length="0.30" shape="347524.96,-3706406.62 347525.00,-3706406.92"/>
        <lane id=":11072645683_0_1" index="1" disallow="tram rail_urban rail rail_electric rail_fast ship container cable_car subway aircraft wheelchair scooter drone" speed="13.89" length="0.30" shape="347528.14,-3706406.20 347528.18,-3706406.50"/>
    </edge>
    <edge id=":11072645690_0" function="internal">
        <lane id=":11072645690_0_0" index="0" allow="pedestrian bicycle" speed="4.17" length="3.88" width="1.60" shape="347584.99,-3706386.93 347583.98,-3706386.80 347583.25,-3706386.34 347582.82,-3706385.57 347582.67,-3706384.47"/>
    </edge>
    <edge id=":11072645690_1" function="internal">
        <lane id=":11072645690_1_0" index="0" allow="pedestrian bicycle" speed="5.56" length="6.22" width="2.00" shape="347584.99,-3706386.93 347578.77,-3706387.00"/>
    </edge>
    <edge id=":11072645690_2" function="internal">
        <lane id=":11072645690_2_0" index="0" allow="pedestrian bicycle" speed="4.17" length="5.75" width="1.60" shape="347584.99,-3706386.93 347583.28,-3706387.17 347582.06,-3706387.79 347581.33,-3706388.79 347581.09,-3706390.18"/>
    </edge>
    <edge id=":11072645690_3" function="internal">
        <lane id=":11072645690_3_0" index="0" allow="pedestrian bicycle" speed="3.83" length="2.93" width="2.00" shape="347582.69,-3706390.17 347582.83,-3706389.65 347583.27,-3706389.27 347584.01,-3706389.03 347585.03,-3706388.93"/>
    </edge>
    <edge id=":11072645690_4" function="internal">
        <lane id=":11072645690_4_0" index="0" disallow="tram rail_urban rail rail_electric rail_fast ship container cable_car subway aircraft wheelchair scooter drone" speed="2.78" length="5.70" width="1.60" shape="347582.69,-3706390.17 347582.67,-3706384.47"/>
    </edge>
    <edge id=":11072645690_5" function="internal">
        <lane id=":11072645690_5_0" index="0" allow="pedestrian bicycle" speed="4.17" length="0.32" width="2.00" shape="347582.69,-3706390.17 347582.63,-3706389.86"/>
    </edge>
    <edge id=":11072645690_12" function="internal">
        <lane id=":11072645690_12_0" index="0" allow="pedestrian bicycle" speed="4.17" length="5.40" width="2.00" shape="347582.63,-3706389.86 347582.44,-3706388.79 347581.70,-3706387.79 347580.48,-3706387.20 347578.77,-3706387.00"/>
    </edge>
    <edge id=":11072645690_6" function="internal">
        <lane id=":11072645690_6_0" index="0" allow="pedestrian bicycle" speed="3.86" length="2.88" width="1.60" shape="347578.77,-3706389.00 347579.78,-3706389.07 347580.51,-3706389.29 347580.94,-3706389.66 347581.09,-3706390.18"/>
    </edge>
    <edge id=":11072645690_7" function="internal">
        <lane id=":11072645690_7_0" index="0" allow="pedestrian bicycle" speed="5.56" length="6.27" width="2.00" shape="347578.77,-3706389.00 347585.03,-3706388.93"/>
    </edge>
    <edge id=":11072645690_8" function="internal">
        <lane id=":11072645690_8_0" index="0" allow="pedestrian bicycle" speed="4.17" length="6.81" width="1.60" shape="347578.77,-3706389.00 347580.48,-3706388.72 347581.70,-3706387.87 347582.43,-3706386.45 347582.67,-3706384.47"/>
    </edge>
    <edge id=":11072645690_9" function="internal">
        <lane id=":11072645690_9_0" index="0" allow="pedestrian bicycle" speed="4.17" length="3.89" width="2.00" shape="347581.07,-3706384.48 347580.93,-3706385.58 347580.50,-3706386.37 347579.78,-3706386.84 347578.77,-3706387.00"/>
    </edge>
    <edge id=":11072645690_10" function="internal">
        <lane id=":11072645690_10_0" index="0" disallow="tram rail_urban rail rail_electric rail_fast ship container cable_car subway aircraft wheelchair scooter drone" speed="2.78" length="5.71" width="1.60" shape="347581.07,-3706384.48 347581.09,-3706390.18"/>
    </edge>
    <edge id=":11072645690_11" function="internal">
        <lane id=":11072645690_11_0" index="0" allow="pedestrian bicycle" speed="4.17" length="1.63" width="2.00" shape="347581.07,-3706384.48 347581.27,-3706386.09"/>
    </edge>
    <edge id=":11072645690_13" function="internal">
        <lane id=":11072645690_13_0" index="0" allow="pedestrian bicycle" speed="4.17" length="5.20" width="2.00" shape="347581.27,-3706386.09 347581.32,-3706386.46 347582.07,-3706387.86 347583.31,-3706388.69 347585.03,-3706388.93"/>
    </edge>
    <edge id=":11072645691_0" function="internal">
        <lane id=":11072645691_0_0" index="0" disallow="tram rail_urban rail rail_electric rail_fast ship container cable_car subway aircraft wheelchair scooter drone" speed="2.78" length="0.17" shape="347583.57,-3706409.25 347583.56,-3706409.20 347583.56,-3706409.16 347583.56,-3706409.13 347583.56,-3706409.08"/>
    </edge>
    <edge id=":11072645691_1" function="internal">
        <lane id=":11072645691_1_0" index="0" disallow="tram rail_urban rail rail_electric rail_fast ship container cable_car subway aircraft wheelchair scooter drone" speed="2.78" length="0.51" shape="347580.36,-3706409.10 347580.36,-3706409.25 347580.36,-3706409.36 347580.37,-3706409.46 347580.39,-3706409.61"/>
    </edge>
    <edge id=":11111263041_0" function="internal">
        <lane id=":11111263041_0_0" index="0" disallow="tram rail_urban rail rail_electric rail_fast ship container cable_car subway aircraft wheelchair scooter drone" speed="13.89" length="3.61" shape="346709.78,-3706405.65 346706.27,-3706404.89"/>
        <lane id=":11111263041_0_1" index="1" disallow="tram rail_urban rail rail_electric rail_fast ship container cable_car subway aircraft wheelchair scooter drone" speed="13.89" length="3.61" shape="346709.11,-3706408.78 346705.57,-3706408.01"/>
    </edge>
    <edge id=":11111263042_0" function="internal">
        <lane id=":11111263042_0_0" index="0" disallow="pedestrian tram rail_urban rail rail_electric rail_fast ship container cable_car subway aircraft wheelchair scooter drone" speed="17.76" length="3.13" shape="346679.61,-3706395.40 346678.80,-3706394.97 346678.20,-3706394.78 346677.56,-3706394.67 346676.65,-3706394.49"/>
    </edge>
    <edge id=":11111263043_0" function="internal">
        <lane id=":11111263043_0_0" index="0" allow="bus bicycle" speed="27.78" length="0.30" shape="346686.22,-3706382.07 346686.16,-3706382.36"/>
        <lane id=":11111263043_0_1" index="1" disallow="tram rail_urban rail rail_electric rail_fast ship container cable_car subway aircraft wheelchair scooter drone" speed="27.78" length="0.30" shape="346689.35,-3706382.73 346689.29,-3706383.03"/>
        <lane id=":11111263043_0_2" index="2" disallow="tram rail_urban rail rail_electric rail_fast ship container cable_car subway aircraft wheelchair scooter drone" speed="27.78" length="0.30" shape="346692.48,-3706383.40 346692.42,-3706383.69"/>
    </edge>
    <edge id=":11111263044_0" function="internal">
        <lane id=":11111263044_0_0" index="0" disallow="tram rail_urban rail rail_electric rail_fast ship container cable_car subway aircraft wheelchair scooter drone" speed="13.89" length="0.30" shape="346714.95,-3706406.76 346714.65,-3706406.69"/>
        <lane id=":11111263044_0_1" index="1" disallow="tram rail_urban rail rail_electric rail_fast ship container cable_car subway aircraft wheelchair scooter drone" speed="13.89" length="0.30" shape="346714.26,-3706409.88 346713.98,-3706409.82"/>
    </edge>
    <edge id=":11162057579_0" function="internal">
        <lane id=":11162057579_0_0" index="0" allow="pedestrian delivery bicycle" speed="5.56" length="4.27" shape="347068.14,-3706385.04 347067.82,-3706386.26 347067.60,-3706387.10 347067.44,-3706387.95 347067.26,-3706389.21"/>
    </edge>
    <edge id=":11162057579_1" function="internal">
        <lane id=":11162057579_1_0" index="0" allow="pedestrian delivery bicycle" speed="5.56" length="3.88" shape="347070.43,-3706389.62 347070.60,-3706388.48 347070.75,-3706387.71 347070.95,-3706386.94 347071.25,-3706385.83"/>
    </edge>
    <edge id=":11162057580_0" function="internal">
        <lane id=":11162057580_0_0" index="0" allow="pedestrian delivery bicycle" speed="5.56" length="4.34" shape="347091.52,-3706333.91 347087.31,-3706332.89"/>
    </edge>
    <edge id=":11162057580_1" function="internal">
        <lane id=":11162057580_1_0" index="0" allow="pedestrian delivery bicycle" speed="5.56" length="4.45" shape="347086.50,-3706335.99 347090.82,-3706337.03"/>
    </edge>
    <edge id=":11334863741_0" function="internal">
        <lane id=":11334863741_0_0" index="0" allow="pedestrian delivery bicycle" speed="5.47" length="6.80" shape="346768.05,-3706149.67 346768.10,-3706151.35 346768.84,-3706152.54 346770.27,-3706153.25 346772.38,-3706153.47"/>
    </edge>
    <edge id=":11334863741_1" function="internal">
        <lane id=":11334863741_1_0" index="0" allow="pedestrian delivery bicycle" speed="5.56" length="7.22" shape="346765.22,-3706152.71 346767.32,-3706153.14 346768.77,-3706153.37 346770.24,-3706153.47 346772.38,-3706153.47"/>
    </edge>
    <edge id=":11334863741_2" function="internal">
        <lane id=":11334863741_2_0" index="0" allow="pedestrian delivery bicycle" speed="5.56" length="7.42" shape="346765.22,-3706152.71 346767.64,-3706152.97 346769.44,-3706152.63 346770.63,-3706151.69 346771.21,-3706150.15"/>
    </edge>
    <edge id=":11732273858_0" function="internal">
        <lane id=":11732273858_0_0" index="0" allow="pedestrian delivery bicycle" speed="5.56" length="9.70" shape="346860.64,-3706206.34 346851.05,-3706204.90"/>
    </edge>
    <edge id=":11732273858_1" function="internal">
        <lane id=":11732273858_1_0" index="0" allow="pedestrian delivery bicycle" speed="5.56" length="9.70" shape="346850.57,-3706208.07 346860.17,-3706209.50"/>
    </edge>
    <edge id=":11732299669_0" function="internal">
        <lane id=":11732299669_0_0" index="0" disallow="tram rail_urban rail rail_electric rail_fast ship container cable_car subway aircraft wheelchair scooter drone" speed="13.89" length="4.39" shape="346748.31,-3706186.72 346749.21,-3706182.43"/>
        <lane id=":11732299669_0_1" index="1" disallow="tram rail_urban rail rail_electric rail_fast ship container cable_car subway aircraft wheelchair scooter drone" speed="13.89" length="4.39" shape="346745.18,-3706186.07 346746.08,-3706181.77"/>
        <lane id=":11732299669_0_2" index="2" disallow="tram rail_urban rail rail_electric rail_fast ship container cable_car subway aircraft wheelchair scooter drone" speed="13.89" length="4.39" shape="346742.04,-3706185.41 346742.94,-3706181.11"/>
    </edge>
    <edge id=":11732299683_0" function="internal">
        <lane id=":11732299683_0_0" index="0" allow="pedestrian delivery bicycle" speed="5.56" length="7.31" shape="346801.23,-3706287.32 346799.62,-3706288.77 346798.50,-3706289.79 346797.58,-3706290.95 346796.53,-3706292.82"/>
    </edge>
    <edge id=":11732299683_1" function="internal">
        <lane id=":11732299683_1_0" index="0" allow="pedestrian delivery bicycle" speed="5.56" length="6.12" shape="346799.40,-3706294.24 346800.28,-3706292.68 346801.08,-3706291.73 346802.03,-3706290.90 346803.39,-3706289.69"/>
    </edge>
    <edge id=":11732299684_0" function="internal">
        <lane id=":11732299684_0_0" index="0" allow="pedestrian delivery bicycle" speed="5.21" length="4.60" shape="346796.44,-3706293.00 346795.77,-3706293.98 346794.90,-3706294.57 346793.83,-3706294.78 346792.57,-3706294.61"/>
    </edge>
    <edge id=":11732299684_1" function="internal">
        <lane id=":11732299684_1_0" index="0" allow="pedestrian delivery bicycle" speed="5.56" length="10.10" shape="346796.44,-3706293.00 346795.75,-3706295.42 346796.27,-3706297.42 346798.00,-3706299.00 346800.95,-3706300.16"/>
    </edge>
    <edge id=":11732299684_2" function="internal">
        <lane id=":11732299684_2_0" index="0" allow="pedestrian delivery bicycle" speed="4.44" length="4.20" shape="346801.78,-3706297.07 346800.37,-3706296.57 346799.49,-3706295.96 346799.14,-3706295.25 346799.31,-3706294.42"/>
    </edge>
    <edge id=":11732299684_3" function="internal">
        <lane id=":11732299684_3_0" index="0" allow="pedestrian delivery bicycle" speed="5.56" length="9.53" shape="346801.78,-3706297.07 346792.57,-3706294.61"/>
    </edge>
    <edge id=":11732299684_4" function="internal">
        <lane id=":11732299684_4_0" index="0" allow="pedestrian delivery bicycle" speed="5.56" length="9.53" shape="346791.75,-3706297.70 346800.95,-3706300.16"/>
    </edge>
    <edge id=":11732299684_5" function="internal">
        <lane id=":11732299684_5_0" index="0" allow="pedestrian delivery bicycle" speed="5.56" length="9.05" shape="346791.75,-3706297.70 346794.19,-3706298.02 346796.26,-3706297.58 346797.97,-3706296.38 346799.31,-3706294.42"/>
    </edge>
    <edge id=":11732299685_0" function="internal">
        <lane id=":11732299685_0_0" index="0" allow="pedestrian delivery bicycle" speed="5.43" length="5.45" shape="346900.61,-3706326.26 346899.72,-3706327.61 346898.70,-3706328.42 346897.53,-3706328.71 346896.23,-3706328.46"/>
    </edge>
    <edge id=":11732299685_1" function="internal">
        <lane id=":11732299685_1_0" index="0" allow="pedestrian delivery bicycle" speed="5.56" length="10.71" shape="346900.61,-3706326.26 346899.66,-3706329.08 346899.90,-3706331.43 346901.33,-3706333.32 346903.96,-3706334.75"/>
    </edge>
    <edge id=":11732299685_2" function="internal">
        <lane id=":11732299685_2_0" index="0" allow="pedestrian delivery bicycle" speed="4.93" length="5.14" shape="346905.08,-3706331.76 346903.82,-3706331.07 346903.14,-3706330.16 346903.02,-3706329.03 346903.48,-3706327.67"/>
    </edge>
    <edge id=":11732299685_3" function="internal">
        <lane id=":11732299685_3_0" index="0" allow="pedestrian delivery bicycle" speed="5.56" length="9.44" shape="346905.08,-3706331.76 346896.23,-3706328.46"/>
    </edge>
    <edge id=":11732299685_4" function="internal">
        <lane id=":11732299685_4_0" index="0" allow="pedestrian delivery bicycle" speed="5.56" length="9.44" shape="346895.11,-3706331.46 346903.96,-3706334.75"/>
    </edge>
    <edge id=":11732299685_5" function="internal">
        <lane id=":11732299685_5_0" index="0" allow="pedestrian delivery bicycle" speed="5.56" length="10.23" shape="346895.11,-3706331.46 346897.67,-3706331.98 346899.91,-3706331.52 346901.85,-3706330.08 346903.48,-3706327.67"/>
    </edge>
    <edge id=":11732299686_0" function="internal">
        <lane id=":11732299686_0_0" index="0" allow="pedestrian delivery bicycle" speed="5.56" length="8.67" shape="346906.66,-3706320.15 346904.51,-3706321.57 346903.07,-3706322.64 346901.92,-3706323.97 346900.66,-3706326.17"/>
    </edge>
    <edge id=":11732299686_1" function="internal">
        <lane id=":11732299686_1_0" index="0" allow="pedestrian delivery bicycle" speed="5.56" length="7.01" shape="346903.53,-3706327.58 346904.56,-3706325.81 346905.52,-3706324.77 346906.71,-3706323.93 346908.46,-3706322.80"/>
    </edge>
    <edge id=":11732299690_0" function="internal">
        <lane id=":11732299690_0_0" index="0" allow="pedestrian delivery bicycle" speed="5.56" length="5.99" shape="346941.77,-3706335.38 346940.55,-3706341.24"/>
    </edge>
    <edge id=":11732299690_1" function="internal">
        <lane id=":11732299690_1_0" index="0" allow="pedestrian delivery bicycle" speed="5.56" length="5.89" shape="346943.69,-3706341.85 346944.89,-3706336.08"/>
    </edge>
    <edge id=":11732299691_0" function="internal">
        <lane id=":11732299691_0_0" index="0" allow="pedestrian delivery bicycle" speed="4.88" length="5.21" shape="346940.52,-3706341.38 346940.04,-3706342.77 346939.24,-3706343.58 346938.13,-3706343.84 346936.70,-3706343.53"/>
    </edge>
    <edge id=":11732299691_1" function="internal">
        <lane id=":11732299691_1_0" index="0" allow="pedestrian delivery bicycle" speed="5.56" length="10.25" shape="346940.52,-3706341.38 346940.31,-3706344.29 346940.90,-3706346.67 346942.29,-3706348.53 346944.48,-3706349.85"/>
    </edge>
    <edge id=":11732299691_2" function="internal">